11U
  CCTOOLS-0919241032

 59 61  0  0  1  0  0  0  0  0999 V2000
    2.4220    0.4070    0.3360 C   0  0  0  0  0
    2.0060   -0.6420    0.7800 O   0  0  0  0  0
    3.8690    0.5350   -0.0630 C   0  0  0  0  0
    4.5590   -0.7380    0.1810 N   0  0  0  0  0
    5.9760   -0.6510   -0.1970 C   0  0  0  0  0
    6.7790   -0.0680    0.9670 C   0  0  0  0  0
    8.2550    0.0240    0.5730 C   0  0  0  0  0
    8.7810   -1.3740    0.2400 C   0  0  0  0  0
    7.9780   -1.9570   -0.9250 C   0  0  0  0  0
    6.5020   -2.0480   -0.5310 C   0  0  0  0  0
    1.5890    1.4580    0.1990 N   0  0  0  0  0
    0.1600    1.4690    0.5420 C   0  0  0  0  0
   -0.5770    0.4580   -0.2980 C   0  0  0  0  0
    0.0270   -0.2120   -1.1080 O   0  0  0  0  0
   -0.3710    2.8880    0.2460 C   0  0  0  0  0
    0.9140    3.7560    0.2780 C   0  0  0  0  0
    1.9600    2.7850   -0.3250 C   0  0  0  0  0
   -1.9070    0.2990   -0.1490 N   0  0  0  0  0
   -2.6230   -0.6850   -0.9660 C   0  0  0  0  0
   -4.0860   -0.6660   -0.6070 C   0  0  0  0  0
   -4.5620   -1.4980    0.3910 C   0  0  0  0  0
   -5.9000   -1.4810    0.7270 C   0  0  0  0  0
   -6.7750   -0.6300    0.0520 C   0  0  0  0  0
   -8.2130   -0.6110    0.4050 C   0  0  0  0  0
   -9.0280    0.1840   -0.2270 N   0  0  0  0  0
   -8.6890   -1.4350    1.4020 N   0  0  0  0  0
   -6.2910    0.2030   -0.9560 C   0  0  0  0  0
   -4.9490    0.1800   -1.2800 C   0  0  0  0  0
    3.9330    0.7860   -1.1220 H   0  0  0  0  0
    4.3400    1.3220    0.5260 H   0  0  0  0  0
    4.4590   -1.0250    1.1430 H   0  0  0  0  0
    6.0800   -0.0050   -1.0690 H   0  0  0  0  0
    6.4040    0.9280    1.2050 H   0  0  0  0  0
    6.6750   -0.7130    1.8390 H   0  0  0  0  0
    8.8270    0.4390    1.4030 H   0  0  0  0  0
    8.3590    0.6690   -0.2990 H   0  0  0  0  0
    8.6770   -2.0190    1.1120 H   0  0  0  0  0
    9.8320   -1.3090   -0.0410 H   0  0  0  0  0
    8.3530   -2.9520   -1.1620 H   0  0  0  0  0
    8.0820   -1.3110   -1.7970 H   0  0  0  0  0
    6.3980   -2.6930    0.3420 H   0  0  0  0  0
    5.9300   -2.4630   -1.3600 H   0  0  0  0  0
    0.0300    1.2400    1.6000 H   0  0  0  0  0
   -1.0720    3.2080    1.0170 H   0  0  0  0  0
   -0.8360    2.9240   -0.7390 H   0  0  0  0  0
    1.1770    4.0280    1.3010 H   0  0  0  0  0
    0.8020    4.6440   -0.3440 H   0  0  0  0  0
    2.9630    3.0560    0.0040 H   0  0  0  0  0
    1.9020    2.7930   -1.4130 H   0  0  0  0  0
   -2.3900    0.8350    0.4990 H   0  0  0  0  0
   -2.5040   -0.4370   -2.0200 H   0  0  0  0  0
   -2.2160   -1.6780   -0.7780 H   0  0  0  0  0
   -3.8840   -2.1590    0.9100 H   0  0  0  0  0
   -6.2690   -2.1270    1.5090 H   0  0  0  0  0
   -9.9700    0.1960    0.0040 H   0  0  0  0  0
   -8.0820   -2.0270    1.8720 H   0  0  0  0  0
   -9.6310   -1.4220    1.6330 H   0  0  0  0  0
   -6.9630    0.8640   -1.4820 H   0  0  0  0  0
   -4.5730    0.8240   -2.0610 H   0  0  0  0  0
  1  2  2  0  0  0
  1  3  1  0  0  0
  3  4  1  0  0  0
  3 29  1  0  0  0
  3 30  1  0  0  0
  4  5  1  0  0  0
  4 31  1  0  0  0
  5 10  1  0  0  0
  5  6  1  0  0  0
  5 32  1  0  0  0
  6 33  1  0  0  0
  6 34  1  0  0  0
  7  6  1  0  0  0
  7 35  1  0  0  0
  7 36  1  0  0  0
  8  7  1  0  0  0
  8 37  1  0  0  0
  8 38  1  0  0  0
  9  8  1  0  0  0
  9 39  1  0  0  0
  9 40  1  0  0  0
 10  9  1  0  0  0
 10 41  1  0  0  0
 10 42  1  0  0  0
 11  1  1  0  0  0
 11 17  1  0  0  0
 11 12  1  0  0  0
 12 13  1  0  0  0
 12 43  1  0  0  0
 13 18  1  0  0  0
 13 14  2  0  0  0
 15 12  1  0  0  0
 15 44  1  0  0  0
 15 45  1  0  0  0
 16 15  1  0  0  0
 16 46  1  0  0  0
 16 47  1  0  0  0
 17 16  1  0  0  0
 17 48  1  0  0  0
 17 49  1  0  0  0
 18 19  1  0  0  0
 18 50  1  0  0  0
 19 20  1  0  0  0
 19 51  1  0  0  0
 19 52  1  0  0  0
 20 28  2  0  0  0
 20 21  1  0  0  0
 21 53  1  0  0  0
 22 21  2  0  0  0
 22 54  1  0  0  0
 23 24  1  0  0  0
 23 22  1  0  0  0
 24 25  2  0  0  0
 24 26  1  0  0  0
 25 55  1  0  0  0
 26 56  1  0  0  0
 26 57  1  0  0  0
 27 23  2  0  0  0
 27 58  1  0  0  0
 28 27  1  0  0  0
 28 59  1  0  0  0
M  END
$$$$
